# avogadro generated ORCA input file 
# Basic Mode
# 
! RHF SP def2-SVP 

* xyz 0 1
   C       -0.81964        0.57616        0.00000
   H        0.25036        0.57616        0.00000
   H       -1.17630        0.97788       -0.92537
   H       -1.17631        1.17670        0.81058
   H       -1.17631       -0.42609        0.11479
*

